<?xml version="1.0" encoding="UTF-8"?>
<routes>
  <vType accel="3.0" decel="6.0" id="CarA" length="5.0" minGap="2.5" maxSpeed="50.0" sigma="0.5" />
  <vType accel="2.0" decel="6.0" id="CarB" length="7.5" minGap="2.5" maxSpeed="50.0" sigma="0.5" />
  <vType accel="1.0" decel="5.0" id="CarC" length="5.0" minGap="2.5" maxSpeed="40.0" sigma="0.5" />
  <vType accel="1.0" decel="5.0" id="CarD" length="7.5" minGap="2.5" maxSpeed="30.0" sigma="0.5" />
   <vType id="reroutingType">
       <param key="has.rerouting.device" value="true"/>
   </vType>
  <route id="route01" edges="E12 E23 E34 E45 E56 E67 E74 E41"/>
  <route id="route02" edges="E32 E21 E14 E47 E76 E65 E54 E43"/>
  <route id="route03" edges="E56 E67 E74 E41 E12 E23 E34 E45"/>
  <route id="route04" edges="E76 E65 E54 E43 E32 E21 E14 E47"/>

 
  
</routes>
